Version 4
SHEET 1 2052 884
WIRE -240 -176 -240 -192
WIRE -112 -176 -112 -192
WIRE 320 -160 176 -160
WIRE 560 -160 400 -160
WIRE 880 -160 768 -160
WIRE 1040 -160 960 -160
WIRE -240 -64 -240 -96
WIRE -112 -64 -112 -96
WIRE 352 -48 352 -64
WIRE 880 -16 880 -32
WIRE 32 0 -80 0
WIRE 176 0 176 -160
WIRE 176 0 112 0
WIRE 320 0 176 0
WIRE -80 16 -80 0
WIRE -240 32 -320 32
WIRE -192 32 -240 32
WIRE -128 32 -192 32
WIRE 560 32 560 -160
WIRE 560 32 464 32
WIRE 640 32 560 32
WIRE 768 32 768 -160
WIRE 768 32 720 32
WIRE 848 32 768 32
WIRE 320 64 288 64
WIRE 1040 64 1040 -160
WIRE 1040 64 992 64
WIRE 1056 64 1040 64
WIRE -128 80 -160 80
WIRE 848 96 816 96
WIRE -80 128 -80 96
WIRE 32 128 -80 128
WIRE 80 128 32 128
WIRE 288 128 288 64
WIRE 352 128 352 112
WIRE 816 144 816 96
WIRE -320 160 -320 32
WIRE 880 160 880 144
WIRE -80 176 -80 128
WIRE 768 176 768 32
WIRE -192 192 -192 32
WIRE -128 192 -192 192
WIRE -160 240 -160 80
WIRE -128 240 -160 240
WIRE -160 272 -160 240
WIRE -80 288 -80 256
WIRE 768 288 768 256
WIRE 768 288 -80 288
WIRE -320 320 -320 240
FLAG 352 -64 +V
FLAG 352 128 -V
FLAG 880 -32 +V
FLAG 880 160 -V
FLAG 1056 64 OUT
FLAG 288 128 0
FLAG 816 144 0
FLAG -320 320 0
FLAG -160 272 0
FLAG 80 208 0
FLAG -240 32 Vid
FLAG 32 128 Vicm
FLAG -112 -64 0
FLAG -112 -192 +V
FLAG -240 -64 0
FLAG -240 -192 -V
SYMBOL LTC6081 352 32 R0
SYMATTR InstName U1
SYMBOL LTC6081 880 64 R0
SYMATTR InstName U2
SYMBOL res 416 -176 R90
WINDOW 0 0 56 VBottom 2
WINDOW 3 32 56 VTop 2
SYMATTR InstName R7
SYMATTR Value 100k
SYMBOL res 736 16 R90
WINDOW 0 0 56 VBottom 2
WINDOW 3 32 56 VTop 2
SYMATTR InstName R8
SYMATTR Value 100k
SYMBOL res 976 -176 R90
WINDOW 0 0 56 VBottom 2
WINDOW 3 32 56 VTop 2
SYMATTR InstName R9
SYMATTR Value 100k
SYMBOL res 784 272 R180
WINDOW 0 36 76 Left 2
WINDOW 3 36 40 Left 2
SYMATTR InstName R10
SYMATTR Value 10k
SYMBOL e -80 0 R0
SYMATTR InstName E1
SYMATTR Value 0.5
SYMBOL e -80 160 R0
SYMATTR InstName E2
SYMATTR Value 0.5
SYMBOL voltage 80 112 R0
WINDOW 123 0 0 Left 0
WINDOW 39 0 0 Left 0
SYMATTR InstName Vicm1
SYMATTR Value SINE(0 1 50)
SYMBOL voltage -320 144 R0
WINDOW 123 0 0 Left 2
WINDOW 39 0 0 Left 2
WINDOW 3 -68 161 Left 2
SYMATTR Value PWL REPEAT FOR 5(0 0 80m 0 120m 1.5m 160m 0 240m 0 265m -2m 290m 5m 315m -2.5m 340m 0 440m 0 520m 2.5m 600m 0 625m 0m5 650m 0 860m 0)ENDREPEAT
SYMATTR InstName Vid1
SYMBOL voltage -112 -192 R0
WINDOW 123 0 0 Left 2
WINDOW 39 0 0 Left 2
SYMATTR InstName V1
SYMATTR Value 15
SYMBOL voltage -240 -192 R0
WINDOW 123 0 0 Left 2
WINDOW 39 0 0 Left 2
SYMATTR InstName V2
SYMATTR Value -15
SYMBOL res 128 -16 R90
WINDOW 0 0 56 VBottom 2
WINDOW 3 32 56 VTop 2
SYMATTR InstName R1
SYMATTR Value 10k
TEXT 464 -224 Bottom 2 ;LTC6081 - Precision Dual CMOS Rail-to-Rail Input/Output Amplifiers\nTwo Op Amp Instrumentation Amplifier
TEXT 64 -200 Left 2 !.tran 2.5
