Version 4
SHEET 1 3024 948
WIRE 416 48 320 48
WIRE 592 48 496 48
WIRE 768 80 736 80
WIRE 880 80 848 80
WIRE 448 128 432 128
WIRE 464 128 448 128
WIRE 432 144 432 128
WIRE 464 160 464 128
WIRE 16 176 -96 176
WIRE 320 192 320 48
WIRE 416 192 320 192
WIRE 800 192 800 176
WIRE -96 208 -96 176
WIRE 592 208 592 48
WIRE 592 208 528 208
WIRE 624 208 592 208
WIRE 736 208 736 80
WIRE 736 208 704 208
WIRE 768 208 736 208
WIRE -256 224 -336 224
WIRE -208 224 -256 224
WIRE -144 224 -208 224
WIRE 16 224 16 176
WIRE 416 224 16 224
WIRE 880 224 880 80
WIRE 880 224 832 224
WIRE 896 224 880 224
WIRE -480 240 -480 224
WIRE 320 240 320 192
WIRE 768 240 736 240
WIRE -144 272 -176 272
WIRE 464 272 464 256
WIRE 800 272 800 256
WIRE 432 288 432 272
WIRE -96 320 -96 288
WIRE 16 320 -96 320
WIRE 64 320 16 320
WIRE -480 336 -480 320
WIRE 448 352 432 352
WIRE 464 352 448 352
WIRE -96 368 -96 320
WIRE 432 368 432 352
WIRE -208 384 -208 224
WIRE -144 384 -208 384
WIRE 464 384 464 352
WIRE -480 416 -480 400
WIRE 320 416 320 320
WIRE 416 416 320 416
WIRE -176 432 -176 272
WIRE -144 432 -176 432
WIRE 592 432 528 432
WIRE 624 432 592 432
WIRE 736 432 736 240
WIRE 736 432 704 432
WIRE 768 432 736 432
WIRE 896 432 848 432
WIRE 416 448 16 448
WIRE -176 464 -176 432
WIRE -96 496 -96 448
WIRE 16 496 16 448
WIRE 16 496 -96 496
WIRE 464 496 464 480
WIRE -480 512 -480 496
WIRE 432 512 432 496
WIRE -336 592 -336 224
WIRE 320 592 320 416
WIRE 416 592 320 592
WIRE 592 592 592 432
WIRE 592 592 496 592
WIRE -336 752 -336 672
FLAG -480 336 0
FLAG -480 512 0
FLAG -480 224 +V
FLAG -480 400 -V
FLAG 448 128 +V
FLAG 896 432 0
FLAG 432 512 -V
FLAG 896 224 OUT
FLAG 464 272 0
FLAG 464 496 0
FLAG 800 176 +V
FLAG 800 272 -V
FLAG 448 352 +V
FLAG 432 288 -V
FLAG -336 752 0
FLAG -176 464 0
FLAG 64 400 0
FLAG -256 224 Vid
FLAG 16 320 Vicm
SYMBOL Opamps\\LT1678 800 224 R0
SYMATTR InstName U3
SYMBOL voltage -480 224 R0
WINDOW 123 0 0 Left 2
WINDOW 39 0 0 Left 2
SYMATTR InstName V1
SYMATTR Value 15
SYMBOL voltage -480 400 R0
WINDOW 123 0 0 Left 2
WINDOW 39 0 0 Left 2
SYMATTR InstName V3
SYMATTR Value -15
SYMBOL res 864 64 R90
WINDOW 0 0 56 VBottom 2
WINDOW 3 32 56 VTop 2
SYMATTR InstName R8
SYMATTR Value 100k
SYMATTR SpiceLine tol=1 pwr=0.1
SYMBOL res 864 416 R90
WINDOW 0 0 56 VBottom 2
WINDOW 3 32 56 VTop 2
SYMATTR InstName R9
SYMATTR Value 100k
SYMATTR SpiceLine tol=1 pwr=0.1
SYMBOL res 720 192 R90
WINDOW 0 0 56 VBottom 2
WINDOW 3 32 56 VTop 2
SYMATTR InstName R10
SYMATTR Value 10k
SYMATTR SpiceLine tol=1 pwr=0.1
SYMBOL res 720 416 R90
WINDOW 0 0 56 VBottom 2
WINDOW 3 32 56 VTop 2
SYMATTR InstName R11
SYMATTR Value 10k
SYMATTR SpiceLine tol=1 pwr=0.1
SYMBOL res 304 224 R0
SYMATTR InstName RG
SYMATTR Value 200
SYMATTR SpiceLine tol=1 pwr=0.1
SYMBOL res 512 32 R90
WINDOW 0 0 56 VBottom 2
WINDOW 3 32 56 VTop 2
SYMATTR InstName R3
SYMATTR Value 100k
SYMATTR SpiceLine tol=1 pwr=0.1
SYMBOL res 512 576 R90
WINDOW 0 0 56 VBottom 2
WINDOW 3 32 56 VTop 2
SYMATTR InstName R4
SYMATTR Value 100k
SYMATTR SpiceLine tol=1 pwr=0.1
SYMBOL Opamps\\LT6018 464 208 R0
SYMATTR InstName U1
SYMBOL Opamps\\LT6018 464 432 R0
SYMATTR InstName U2
SYMBOL e -96 192 R0
SYMATTR InstName E2
SYMATTR Value -0.5
SYMBOL e -96 352 R0
SYMATTR InstName E3
SYMATTR Value -0.5
SYMBOL voltage 64 304 R0
WINDOW 123 0 0 Left 0
WINDOW 39 0 0 Left 0
SYMATTR InstName Vicm1
SYMATTR Value SINE(0 10 50)
SYMBOL voltage -336 576 R0
WINDOW 123 0 0 Left 2
WINDOW 39 0 0 Left 2
WINDOW 3 38 91 Left 2
SYMATTR Value PWL REPEAT FOR 5(0 0 80m 0 120m 1.5m 160m 0 240m 0 265m -2m 290m 5m 315m -2.5m 340m 0 440m 0 520m 2.5m 600m 0 625m 0m5 650m 0 860m 0)ENDREPEAT
SYMATTR InstName Vid2
TEXT -24 784 Left 2 ;Note:\n  If the simulation model is not found please update with the "Sync Release" command from the "Tools" menu.\n  It remains the customer's responsibility to verify proper and reliable operation in the actual application.\n  Component substitution and printed circuit board layout may significantly affect circuit performance or reliability\n  Contact your local sales representative for assistance. This circuit is distributed to customers only for use with LTC parts\n  Copyright © 2017 Linear Technology Inc. All rights reserved.
TEXT 520 0 Bottom 2 ;LT6018 - Ultralow Disortion, Ultralow Noise Precision Op Amp\nLT1678 - Low Noise RR Precision Op Amp\nLow Noise, High CMRR Instrumentation Amplifier\nInput: +/- 15 V
TEXT 960 544 Left 2 !.tran 2.5
