Version 4
SHEET 1 2380 2108
WIRE 1408 0 1264 0
WIRE 1648 0 1488 0
WIRE 1968 0 1856 0
WIRE 2128 0 2048 0
WIRE 96 48 -48 48
WIRE 336 48 176 48
WIRE 656 48 544 48
WIRE 816 48 736 48
WIRE 1440 112 1440 96
WIRE 1968 144 1968 128
WIRE 128 160 128 144
WIRE 1264 160 1264 0
WIRE 1264 160 1136 160
WIRE 1408 160 1264 160
WIRE 656 192 656 176
WIRE 1136 192 1136 160
WIRE 1648 192 1648 0
WIRE 1648 192 1552 192
WIRE 1728 192 1648 192
WIRE 1856 192 1856 0
WIRE 1856 192 1808 192
WIRE 1936 192 1856 192
WIRE -48 208 -48 48
WIRE -48 208 -176 208
WIRE 96 208 -48 208
WIRE 1408 224 1376 224
WIRE 2128 224 2128 0
WIRE 2128 224 2080 224
WIRE 2144 224 2128 224
WIRE -176 240 -176 208
WIRE 336 240 336 48
WIRE 336 240 240 240
WIRE 416 240 336 240
WIRE 544 240 544 48
WIRE 544 240 496 240
WIRE 624 240 544 240
WIRE 1936 256 1904 256
WIRE 96 272 64 272
WIRE 816 272 816 48
WIRE 816 272 768 272
WIRE 832 272 816 272
WIRE 1376 288 1376 224
WIRE 1440 288 1440 272
WIRE 624 304 592 304
WIRE 1904 304 1904 256
WIRE 1136 320 1136 272
WIRE 1968 320 1968 304
WIRE 64 336 64 272
WIRE 128 336 128 320
WIRE 592 352 592 304
WIRE -176 368 -176 320
WIRE 656 368 656 352
WIRE 1856 368 1856 192
WIRE -800 416 -800 400
WIRE -672 416 -672 400
WIRE -400 416 -512 416
WIRE -288 416 -320 416
WIRE 544 416 544 240
WIRE -512 496 -512 416
WIRE -288 496 -288 416
WIRE 1856 496 1856 448
WIRE -800 528 -800 496
WIRE -672 528 -672 496
WIRE 544 544 544 496
FLAG -672 528 0
FLAG 128 144 +V
FLAG -672 400 +V
FLAG 128 336 -V
FLAG -800 528 0
FLAG -800 400 -V
FLAG 656 176 +V
FLAG 656 368 -V
FLAG 832 272 outd
FLAG 64 336 0
FLAG 592 352 0
FLAG -512 576 0
FLAG -288 576 0
FLAG 544 544 0
FLAG -176 368 0
FLAG 1440 96 +V
FLAG 1440 288 -V
FLAG 1968 128 +V
FLAG 1968 320 -V
FLAG 2144 224 outCM
FLAG 1376 288 0
FLAG 1904 304 0
FLAG 1856 496 0
FLAG 1136 320 0
SYMBOL voltage -672 400 R0
WINDOW 123 0 0 Left 2
WINDOW 39 0 0 Left 2
SYMATTR InstName V1
SYMATTR Value 15
SYMBOL voltage -800 400 R0
WINDOW 123 0 0 Left 2
WINDOW 39 0 0 Left 2
SYMATTR InstName V2
SYMATTR Value -15
SYMBOL LTC6081 128 240 R0
SYMATTR InstName U3
SYMBOL LTC6081 656 272 R0
SYMATTR InstName U4
SYMBOL res 192 32 R90
WINDOW 0 0 56 VBottom 2
WINDOW 3 32 56 VTop 2
SYMATTR InstName R2
SYMATTR Value 5k
SYMBOL res 512 224 R90
WINDOW 0 0 56 VBottom 2
WINDOW 3 32 56 VTop 2
SYMATTR InstName R3
SYMATTR Value 5k
SYMBOL res 752 32 R90
WINDOW 0 0 56 VBottom 2
WINDOW 3 32 56 VTop 2
SYMATTR InstName R4
SYMATTR Value 5k
SYMBOL f 544 416 R0
SYMATTR InstName F1
SYMATTR Value -0.5
SYMATTR SpiceModel VsenseDif
SYMBOL current -512 496 R0
WINDOW 123 24 108 Left 2
WINDOW 39 0 0 Left 0
SYMATTR InstName Idiff
SYMATTR Value ""
SYMATTR Value2 AC 1
SYMBOL res -416 432 R270
WINDOW 0 32 56 VTop 2
WINDOW 3 0 56 VBottom 2
SYMATTR InstName R16
SYMATTR Value 1
SYMBOL voltage -288 480 R0
SYMATTR InstName VsenseDif
SYMBOL f -176 240 R0
SYMATTR InstName F2
SYMATTR Value 0.5
SYMATTR SpiceModel VsenseDif
SYMBOL LTC6081 1440 192 R0
SYMATTR InstName U1
SYMBOL LTC6081 1968 224 R0
SYMATTR InstName U2
SYMBOL res 1504 -16 R90
WINDOW 0 0 56 VBottom 2
WINDOW 3 32 56 VTop 2
SYMATTR InstName R1
SYMATTR Value 5k
SYMBOL res 1824 176 R90
WINDOW 0 0 56 VBottom 2
WINDOW 3 32 56 VTop 2
SYMATTR InstName R5
SYMATTR Value 5k
SYMBOL res 2064 -16 R90
WINDOW 0 0 56 VBottom 2
WINDOW 3 32 56 VTop 2
SYMATTR InstName R6
SYMATTR Value 5k
SYMBOL current 1136 192 R0
WINDOW 123 24 108 Left 2
WINDOW 39 0 0 Left 0
SYMATTR InstName ICM1
SYMATTR Value ""
SYMATTR Value2 AC 1
SYMBOL current 1856 368 R0
WINDOW 123 24 108 Left 2
WINDOW 39 0 0 Left 0
SYMATTR InstName ICM2
SYMATTR Value ""
SYMATTR Value2 AC 1
TEXT -440 -248 Bottom 2 ;LTC6081 - Precision Dual CMOS Rail-to-Rail Input/Output Amplifiers\nTwo Op Amp Instrumentation Amplifier
TEXT -960 176 Left 2 !.ac dec 100 .01 10Meg
