Version 4
SHEET 1 1416 680
WIRE 928 112 784 112
WIRE 1360 160 1296 160
WIRE 784 176 784 112
WIRE 832 176 784 176
WIRE 544 192 352 192
WIRE 928 192 928 112
WIRE 928 192 896 192
WIRE 1088 192 928 192
WIRE 208 208 96 208
WIRE 832 208 688 208
WIRE 1088 208 1088 192
WIRE 1152 208 1088 208
WIRE -336 560 -416 560
WIRE -256 560 -336 560
WIRE 16 560 -80 560
WIRE 48 560 16 560
WIRE 96 560 48 560
WIRE 192 560 96 560
WIRE 48 592 48 560
FLAG 48 592 0
FLAG -336 560 0
FLAG 544 160 0
FLAG 208 176 0
FLAG -48 224 0
FLAG -416 480 +Vcc
FLAG -48 160 +Vcc
FLAG 208 240 +Vcc
FLAG 544 96 +Vcc
FLAG 1152 112 +Vcc
FLAG -336 480 -Vcc
FLAG -48 192 -Vcc
FLAG 208 144 -Vcc
FLAG 544 128 -Vcc
FLAG 1152 144 -Vcc
FLAG -256 480 in
FLAG -48 256 in
FLAG 544 224 s1
FLAG -80 480 s1
FLAG 16 480 s2
FLAG 544 256 s2
FLAG 96 480 s3
FLAG 544 288 s3
FLAG 192 480 s4
FLAG 544 320 s4
FLAG 1152 176 0
FLAG 1360 160 out
FLAG 864 160 +Vcc
FLAG 864 224 -Vcc
SYMBOL amp-neinv-comp-DC-symb 16 208 R0
SYMATTR InstName amp-comp
SYMBOL Etaj2-symb 272 192 R0
SYMATTR InstName filtru-TB
SYMBOL Etaj3-sumb 608 208 R0
SYMATTR InstName PGA
SYMBOL voltage -416 464 R0
WINDOW 123 0 0 Left 0
WINDOW 39 0 0 Left 0
SYMATTR InstName V1
SYMATTR Value 5
SYMBOL voltage -336 464 R0
WINDOW 123 0 0 Left 0
WINDOW 39 0 0 Left 0
SYMATTR InstName V2
SYMATTR Value -5
SYMBOL voltage -256 464 R0
WINDOW 123 0 0 Left 0
WINDOW 39 0 0 Left 0
SYMATTR InstName V3
SYMATTR Value SINE(0 118m 707)
SYMBOL voltage -80 464 R0
WINDOW 123 0 0 Left 0
WINDOW 39 0 0 Left 0
SYMATTR InstName V4
SYMATTR Value 0
SYMBOL voltage 16 464 R0
WINDOW 123 0 0 Left 0
WINDOW 39 0 0 Left 0
SYMATTR InstName V5
SYMATTR Value 0
SYMBOL voltage 96 464 R0
WINDOW 123 0 0 Left 0
WINDOW 39 0 0 Left 0
SYMATTR InstName V6
SYMATTR Value 0
SYMBOL voltage 192 464 R0
WINDOW 123 0 0 Left 0
WINDOW 39 0 0 Left 0
SYMATTR InstName V7
SYMATTR Value 1
SYMBOL Etaj4-symb 1216 160 R0
SYMATTR InstName redresor-bialt
SYMBOL OpAmps\\LT6234 864 192 R0
SYMATTR InstName U1
TEXT -448 616 Left 2 !.tran 0 4m 0 1u
