Version 4
SHEET 1 1580 680
WIRE -176 48 -176 32
WIRE -160 48 -176 48
WIRE -16 48 -80 48
WIRE 80 48 -16 48
WIRE 176 48 160 48
WIRE 208 48 176 48
WIRE 304 48 288 48
WIRE -176 64 -176 48
WIRE -16 64 -16 48
WIRE 176 128 176 48
WIRE 192 128 176 128
WIRE 304 144 304 48
WIRE 304 144 256 144
WIRE 384 144 304 144
WIRE 192 160 160 160
WIRE -16 192 -16 144
FLAG -560 368 0
FLAG -480 368 0
FLAG -560 288 +Vcc
FLAG -176 -48 +Vcc
FLAG 224 112 +Vcc
FLAG -480 288 -Vcc
FLAG 224 176 -Vcc
FLAG -176 144 -Vcc
FLAG 80 160 in
FLAG 384 144 out
FLAG -16 48 comp
FLAG -176 576 0
FLAG -16 192 0
FLAG -176 496 in
SYMBOL OpAmps\\LT6234 224 144 R0
SYMATTR InstName U1
SYMBOL voltage -560 272 R0
WINDOW 123 0 0 Left 0
WINDOW 39 0 0 Left 0
SYMATTR InstName V1
SYMATTR Value 5
SYMBOL voltage -480 272 R0
WINDOW 123 0 0 Left 0
WINDOW 39 0 0 Left 0
SYMATTR InstName V2
SYMATTR Value -5
SYMBOL res 176 144 R90
WINDOW 0 0 56 VBottom 2
WINDOW 3 32 56 VTop 2
SYMATTR InstName R3
SYMATTR Value 9k
SYMBOL res 304 32 R90
WINDOW 0 0 56 VBottom 2
WINDOW 3 32 56 VTop 2
SYMATTR InstName R2
SYMATTR Value 90k
SYMBOL res 176 32 R90
WINDOW 0 0 56 VBottom 2
WINDOW 3 32 56 VTop 2
SYMATTR InstName R1
SYMATTR Value 10k
SYMBOL res -32 48 R0
SYMATTR InstName Rc1
SYMATTR Value 10
SYMBOL res -64 32 R90
WINDOW 0 0 56 VBottom 2
WINDOW 3 32 56 VTop 2
SYMATTR InstName Rc2
SYMATTR Value 100k
SYMBOL res -160 160 R180
WINDOW 0 36 76 Left 2
WINDOW 3 36 40 Left 2
SYMATTR InstName R6
SYMATTR Value {(1-a)*P}
SYMBOL res -160 48 R180
WINDOW 0 36 76 Left 2
WINDOW 3 36 40 Left 2
SYMATTR InstName R7
SYMATTR Value {a*P}
SYMBOL voltage -176 480 R0
WINDOW 3 24 152 Left 2
WINDOW 123 24 124 Left 2
WINDOW 39 0 0 Left 0
SYMATTR InstName V4
SYMATTR Value SINE(0 0.5 1000k)
SYMATTR Value2 AC 1
TEXT -576 176 Left 2 !.param P 10k
TEXT -576 152 Left 2 !.param a 0.4887
TEXT -594 624 Left 2 !.tran 0 4u 0.1n 0.1u
