Version 4
SHEET 1 1580 680
WIRE -176 0 -176 -16
WIRE -160 0 -176 0
WIRE -16 0 -80 0
WIRE 80 0 -16 0
WIRE 176 0 160 0
WIRE 208 0 176 0
WIRE 304 0 288 0
WIRE -176 16 -176 0
WIRE -16 16 -16 0
WIRE 176 128 176 0
WIRE 192 128 176 128
WIRE -16 144 -16 96
WIRE 304 144 304 0
WIRE 304 144 256 144
WIRE 384 144 304 144
WIRE 192 160 160 160
FLAG -176 -96 +Vcc
IOPIN -176 -96 In
FLAG 224 112 +Vcc
IOPIN 224 112 In
FLAG 224 176 -Vcc
IOPIN 224 176 In
FLAG -176 96 -Vcc
IOPIN -176 96 In
FLAG 80 160 in
IOPIN 80 160 In
FLAG 384 144 out
IOPIN 384 144 Out
FLAG -16 144 COM
IOPIN -16 144 In
SYMBOL OpAmps\\LT6234 224 144 R0
SYMATTR InstName U1
SYMBOL res 176 144 R90
WINDOW 0 0 56 VBottom 2
WINDOW 3 32 56 VTop 2
SYMATTR InstName R3
SYMATTR Value 9k
SYMBOL res 304 -16 R90
WINDOW 0 0 56 VBottom 2
WINDOW 3 37 37 VTop 2
SYMATTR InstName R2
SYMATTR Value 90k
SYMBOL res 176 -16 R90
WINDOW 0 0 56 VBottom 2
WINDOW 3 32 56 VTop 2
SYMATTR InstName R1
SYMATTR Value 10k
SYMBOL res -32 0 R0
SYMATTR InstName Rc1
SYMATTR Value 10
SYMBOL res -64 -16 R90
WINDOW 0 0 56 VBottom 2
WINDOW 3 32 56 VTop 2
SYMATTR InstName Rc2
SYMATTR Value 100k
SYMBOL res -160 112 R180
WINDOW 0 36 76 Left 2
WINDOW 3 36 40 Left 2
SYMATTR InstName R6
SYMATTR Value {(1-a)*P}
SYMBOL res -160 0 R180
WINDOW 0 36 76 Left 2
WINDOW 3 36 40 Left 2
SYMATTR InstName R7
SYMATTR Value {a*P}
TEXT -296 288 Left 2 !.param P 10k
TEXT -296 264 Left 2 !.param a 0.4887
