Version 4
SHEET 1 1636 1836
WIRE -800 -128 -800 -144
WIRE -672 -128 -672 -144
WIRE 272 -96 112 -96
WIRE 384 -96 272 -96
WIRE -800 -16 -800 -48
WIRE -672 -16 -672 -48
WIRE 112 -16 112 -96
WIRE 384 -16 384 -96
WIRE 880 64 880 48
WIRE -64 80 -592 80
WIRE 384 112 384 64
WIRE 848 112 384 112
WIRE -592 128 -592 80
WIRE -704 144 -832 144
WIRE -640 144 -704 144
WIRE 1040 144 992 144
WIRE 1056 144 1040 144
WIRE 112 176 112 64
WIRE 848 176 112 176
WIRE -640 192 -672 192
WIRE -64 192 -64 80
WIRE 496 192 -64 192
WIRE -592 240 -592 208
WIRE -432 240 -592 240
WIRE 112 240 112 176
WIRE 384 240 384 112
WIRE 880 240 880 224
WIRE -832 272 -832 144
WIRE -592 288 -592 240
WIRE 48 288 -64 288
WIRE 496 288 496 192
WIRE 496 288 448 288
WIRE -704 304 -704 144
WIRE -640 304 -704 304
WIRE -672 352 -672 192
WIRE -640 352 -672 352
WIRE -672 384 -672 352
WIRE -592 400 -592 368
WIRE -64 400 -64 288
WIRE -64 400 -592 400
WIRE -832 432 -832 352
WIRE -224 528 -272 528
WIRE 112 528 112 336
WIRE 112 528 -144 528
WIRE 192 528 112 528
WIRE 384 528 384 336
WIRE 384 528 272 528
WIRE 736 528 384 528
WIRE 1040 528 1040 144
WIRE 1040 528 816 528
WIRE -272 576 -272 528
WIRE 112 592 112 528
WIRE 384 592 384 528
WIRE 112 800 112 672
WIRE 240 800 112 800
WIRE 384 800 384 672
WIRE 384 800 240 800
WIRE 272 896 112 896
WIRE 384 896 272 896
WIRE 112 976 112 896
WIRE 384 976 384 896
WIRE 880 1056 880 1040
WIRE -64 1072 -592 1072
WIRE 384 1104 384 1056
WIRE 848 1104 384 1104
WIRE -592 1120 -592 1072
WIRE -704 1136 -832 1136
WIRE -640 1136 -704 1136
WIRE 1040 1136 992 1136
WIRE 1056 1136 1040 1136
WIRE 112 1168 112 1056
WIRE 848 1168 112 1168
WIRE -640 1184 -672 1184
WIRE -64 1184 -64 1072
WIRE 496 1184 -64 1184
WIRE -592 1232 -592 1200
WIRE -432 1232 -592 1232
WIRE 112 1232 112 1168
WIRE 384 1232 384 1104
WIRE 880 1232 880 1216
WIRE -832 1264 -832 1136
WIRE -592 1280 -592 1232
WIRE 48 1280 -64 1280
WIRE 496 1280 496 1184
WIRE 496 1280 448 1280
WIRE -704 1296 -704 1136
WIRE -640 1296 -704 1296
WIRE -672 1344 -672 1184
WIRE -640 1344 -672 1344
WIRE -672 1376 -672 1344
WIRE -592 1392 -592 1360
WIRE -64 1392 -64 1280
WIRE -64 1392 -592 1392
WIRE -832 1424 -832 1344
WIRE -224 1520 -272 1520
WIRE 112 1520 112 1328
WIRE 112 1520 -144 1520
WIRE 192 1520 112 1520
WIRE 384 1520 384 1328
WIRE 384 1520 272 1520
WIRE 736 1520 384 1520
WIRE 1040 1520 1040 1136
WIRE 1040 1520 816 1520
WIRE -272 1568 -272 1520
WIRE 112 1584 112 1520
WIRE 384 1584 384 1520
WIRE 112 1792 112 1664
WIRE 240 1792 112 1792
WIRE 384 1792 384 1664
WIRE 384 1792 240 1792
FLAG -672 -16 0
FLAG -672 -144 +V
FLAG -800 -16 0
FLAG -800 -144 -V
FLAG 880 48 +V
FLAG 880 240 -V
FLAG 1056 144 outd
FLAG 272 -96 +V
FLAG -272 576 0
FLAG 240 800 -V
FLAG 880 1040 +V
FLAG 880 1232 -V
FLAG 1056 1136 outcm
FLAG 272 896 +V
FLAG -272 1568 0
FLAG 240 1792 -V
FLAG -832 432 0
FLAG -672 384 0
FLAG -432 320 0
FLAG -832 1424 0
FLAG -672 1376 0
FLAG -432 1312 0
DATAFLAG 112 112 ""
DATAFLAG 384 96 ""
DATAFLAG 112 480 ""
DATAFLAG 384 448 ""
DATAFLAG 1040 256 ""
DATAFLAG 112 1104 ""
DATAFLAG 384 1088 ""
DATAFLAG 112 1472 ""
DATAFLAG 384 1440 ""
DATAFLAG 1040 1248 ""
SYMBOL voltage -672 -144 R0
WINDOW 123 0 0 Left 2
WINDOW 39 0 0 Left 2
SYMATTR InstName V1
SYMATTR Value 15
SYMBOL voltage -800 -144 R0
WINDOW 123 0 0 Left 2
WINDOW 39 0 0 Left 2
SYMATTR InstName V2
SYMATTR Value -15
SYMBOL LTC6081 880 144 R0
SYMATTR InstName U4
SYMBOL npn 48 240 R0
WINDOW 0 54 32 Left 2
WINDOW 3 52 69 Left 2
SYMATTR InstName Q1
SYMATTR Value 2N3904
SYMBOL npn 448 240 M0
WINDOW 0 54 32 Left 2
WINDOW 3 51 65 Left 2
SYMATTR InstName Q2
SYMATTR Value 2N3904
SYMBOL res 96 -32 R0
SYMATTR InstName R1
SYMATTR Value 5k
SYMBOL res 368 -32 R0
SYMATTR InstName R2
SYMATTR Value 5k
SYMBOL res 832 512 R90
WINDOW 0 0 56 VBottom 2
WINDOW 3 32 56 VTop 2
SYMATTR InstName RFa
SYMATTR Value 50k
SYMBOL res 288 512 R90
WINDOW 0 0 56 VBottom 2
WINDOW 3 32 56 VTop 2
SYMATTR InstName RG
SYMATTR Value 1k
SYMBOL res -128 512 R90
WINDOW 0 0 56 VBottom 2
WINDOW 3 32 56 VTop 2
SYMATTR InstName RFb
SYMATTR Value 50k
SYMBOL current 112 592 R0
WINDOW 123 0 0 Left 0
WINDOW 39 0 0 Left 0
SYMATTR InstName I1
SYMATTR Value 1m
SYMBOL current 384 592 R0
WINDOW 123 0 0 Left 0
WINDOW 39 0 0 Left 0
SYMATTR InstName I2
SYMATTR Value 1m
SYMBOL LTC6081 880 1136 R0
SYMATTR InstName U1
SYMBOL npn 48 1232 R0
WINDOW 0 54 32 Left 2
WINDOW 3 52 69 Left 2
SYMATTR InstName Q3
SYMATTR Value 2N3904
SYMBOL npn 448 1232 M0
WINDOW 0 54 32 Left 2
WINDOW 3 51 65 Left 2
SYMATTR InstName Q4
SYMATTR Value 2N3904
SYMBOL res 96 960 R0
SYMATTR InstName R3
SYMATTR Value 5k
SYMBOL res 368 960 R0
SYMATTR InstName R4
SYMATTR Value 5k
SYMBOL res 832 1504 R90
WINDOW 0 0 56 VBottom 2
WINDOW 3 32 56 VTop 2
SYMATTR InstName RFa1
SYMATTR Value 50k
SYMBOL res 288 1504 R90
WINDOW 0 0 56 VBottom 2
WINDOW 3 32 56 VTop 2
SYMATTR InstName RG1
SYMATTR Value 1k
SYMBOL res -128 1504 R90
WINDOW 0 0 56 VBottom 2
WINDOW 3 32 56 VTop 2
SYMATTR InstName RFb1
SYMATTR Value 50k
SYMBOL current 112 1584 R0
WINDOW 123 0 0 Left 0
WINDOW 39 0 0 Left 0
SYMATTR InstName I3
SYMATTR Value 1m
SYMBOL current 384 1584 R0
WINDOW 123 0 0 Left 0
WINDOW 39 0 0 Left 0
SYMATTR InstName I4
SYMATTR Value 1m
SYMBOL voltage -832 256 R0
WINDOW 123 38 63 Left 2
WINDOW 39 0 0 Left 2
WINDOW 0 38 12 Left 2
WINDOW 3 -188 38 Left 2
SYMATTR Value2 AC 1
SYMATTR InstName Vin1
SYMATTR Value ""
SYMBOL e -592 112 R0
SYMATTR InstName E1
SYMATTR Value -0.5
SYMBOL e -592 272 R0
SYMATTR InstName E2
SYMATTR Value -0.5
SYMBOL voltage -432 224 R0
WINDOW 123 38 63 Left 2
WINDOW 39 0 0 Left 2
WINDOW 0 38 12 Left 2
WINDOW 3 -188 38 Left 2
SYMATTR Value2 AC 0
SYMATTR InstName Vicm1
SYMATTR Value ""
SYMBOL voltage -832 1248 R0
WINDOW 123 38 63 Left 2
WINDOW 39 0 0 Left 2
WINDOW 0 38 12 Left 2
WINDOW 3 -188 38 Left 2
SYMATTR Value2 AC 0
SYMATTR InstName Vin2
SYMATTR Value ""
SYMBOL e -592 1104 R0
SYMATTR InstName E3
SYMATTR Value -0.5
SYMBOL e -592 1264 R0
SYMATTR InstName E4
SYMATTR Value -0.5
SYMBOL voltage -432 1216 R0
WINDOW 123 38 63 Left 2
WINDOW 39 0 0 Left 2
WINDOW 0 38 12 Left 2
WINDOW 3 -188 38 Left 2
SYMATTR Value2 AC 1
SYMATTR InstName Vicm2
SYMATTR Value ""
TEXT -1368 -144 Left 2 !.ac dec 100 .01 10Meg
TEXT -1368 -360 Left 2 !.meas AC AD FIND V(outd) AT 1
TEXT -1360 -392 Left 2 ;Measure low-frequency gain (and phase): .meas AC Gain_LowFrequency FIND <Function> AT <Frequency>
TEXT -1368 -336 Left 2 !.meas AC ACM FIND V(outCM) AT 1
TEXT -1368 -280 Left 2 !.meas AC CMRR FIND (V(outd)/V(outCM)) AT 1
TEXT -400 -440 Bottom 2 ;LTC6081 - Precision Dual CMOS Rail-to-Rail Input/Output Amplifiers\nTwo Op Amp Instrumentation Amplifier
TEXT -1368 -248 Left 2 !.meas AC outd_max MAX mag(V(outd)) ; find the peak response\n.meas AC BW FIND v(outd) WHEN mag(v(outd))=outd_max/sqrt(2) FALL=last
