Version 4
SHEET 1 880 680
WIRE -48 0 -96 0
WIRE 96 0 32 0
WIRE 208 0 96 0
WIRE 368 0 288 0
WIRE 480 0 368 0
WIRE 576 0 560 0
WIRE 96 64 96 0
WIRE 160 64 96 64
WIRE 368 128 368 0
WIRE 432 128 368 128
WIRE 96 144 96 64
WIRE 128 144 96 144
WIRE 576 144 576 0
WIRE 576 144 496 144
WIRE 224 160 224 64
WIRE 224 160 192 160
WIRE 240 160 224 160
WIRE 368 160 304 160
WIRE 432 160 368 160
WIRE 128 176 96 176
WIRE 96 192 96 176
WIRE -96 304 -96 0
WIRE 128 304 -96 304
WIRE 368 304 368 160
WIRE 368 304 208 304
FLAG 96 192 0
FLAG -416 448 0
FLAG -496 448 0
FLAG -576 448 0
FLAG -576 368 +Vcc
FLAG 160 128 +Vcc
FLAG 464 112 +Vcc
FLAG -496 368 -Vcc
FLAG 160 192 -Vcc
FLAG 464 176 -Vcc
FLAG -416 368 in
FLAG -96 0 in
FLAG 576 144 out
FLAG 224 160 out1
DATAFLAG 576 0 ""
DATAFLAG 576 0 ""
SYMBOL res 224 288 R90
WINDOW 0 0 56 VBottom 2
WINDOW 3 32 56 VTop 2
SYMATTR InstName R1
SYMATTR Value {R}
SYMBOL res 48 -16 R90
WINDOW 0 0 56 VBottom 2
WINDOW 3 32 56 VTop 2
SYMATTR InstName R2
SYMATTR Value {R}
SYMBOL res 304 -16 R90
WINDOW 0 0 56 VBottom 2
WINDOW 3 32 56 VTop 2
SYMATTR InstName R3
SYMATTR Value {R}
SYMBOL res 576 -16 R90
WINDOW 0 0 56 VBottom 2
WINDOW 3 32 56 VTop 2
SYMATTR InstName R4
SYMATTR Value {(A-1)*R}
SYMBOL voltage -576 352 R0
WINDOW 123 0 0 Left 0
WINDOW 39 0 0 Left 0
SYMATTR InstName V1
SYMATTR Value 5
SYMBOL voltage -496 352 R0
WINDOW 123 0 0 Left 0
WINDOW 39 0 0 Left 0
SYMATTR InstName V2
SYMATTR Value -5
SYMBOL voltage -416 352 R0
WINDOW 123 0 0 Left 0
WINDOW 39 0 0 Left 0
SYMATTR InstName V3
SYMATTR Value SINE(0 1.6 1k)
SYMBOL diode 224 48 R90
WINDOW 0 0 32 VBottom 2
WINDOW 3 32 32 VTop 2
SYMATTR InstName D1
SYMATTR Value 1N4148
SYMBOL diode 304 144 R90
WINDOW 0 0 32 VBottom 2
WINDOW 3 32 32 VTop 2
SYMATTR InstName D2
SYMATTR Value 1N4148
SYMBOL OpAmps\\LT6234 160 160 R0
SYMATTR InstName U1
SYMBOL OpAmps\\LT6234 464 144 R0
SYMATTR InstName U2
TEXT -608 472 Left 2 !.tran 0 3m 0.1m 0.01m
TEXT -584 280 Left 2 !.param R 3.3k
TEXT -584 256 Left 2 !.param A 1.5
