Version 4
SHEET 1 880 1068
WIRE -1296 -240 -1296 -320
WIRE -1152 -240 -1152 -320
WIRE -1008 -240 -1008 -304
WIRE -864 -240 -864 -304
WIRE -736 -240 -736 -304
WIRE -592 -240 -592 -304
WIRE -1008 -128 -1008 -160
WIRE -864 -128 -864 -160
WIRE -736 -128 -736 -160
WIRE -592 -128 -592 -160
WIRE -1296 -96 -1296 -160
WIRE -1152 -96 -1152 -160
WIRE -304 48 -896 48
WIRE -208 48 -208 16
WIRE -304 64 -304 48
WIRE -240 64 -304 64
WIRE -48 80 -176 80
WIRE -16 80 -48 80
WIRE -240 96 -304 96
WIRE -896 112 -896 48
WIRE -720 112 -752 112
WIRE -656 112 -720 112
WIRE -480 112 -576 112
WIRE -304 112 -304 96
WIRE -304 112 -480 112
WIRE -208 128 -208 112
WIRE -752 144 -752 112
WIRE -896 224 -896 192
WIRE -336 224 -336 208
WIRE -752 256 -752 224
WIRE -480 304 -480 112
WIRE -432 304 -480 304
WIRE -144 304 -240 304
WIRE -16 304 -16 80
WIRE -16 304 -64 304
WIRE -400 512 -400 480
WIRE -336 640 -336 624
WIRE -480 720 -480 304
WIRE -432 720 -480 720
WIRE -160 720 -240 720
WIRE -16 720 -16 304
WIRE -16 720 -80 720
WIRE -400 928 -400 896
FLAG -1152 -96 0
FLAG -1152 -320 VDD
FLAG -896 224 0
FLAG -752 256 0
FLAG -1008 -128 0
FLAG -1008 -304 S1
FLAG -864 -128 0
FLAG -864 -304 S2
FLAG -736 -128 0
FLAG -736 -304 S3
FLAG -592 -128 0
FLAG -592 -304 S4
FLAG -48 80 out
FLAG -720 112 in
FLAG -208 128 VDD
FLAG -208 16 VSS
FLAG -1296 -96 0
FLAG -1296 -320 VSS
FLAG -432 784 S2
FLAG -272 896 0
FLAG -336 624 VDD
FLAG -400 928 VSS
FLAG -432 368 S1
FLAG -272 480 0
FLAG -336 208 VDD
FLAG -400 512 VSS
DATAFLAG -400 112 ""
SYMBOL voltage -1152 -256 R0
WINDOW 123 0 0 Left 2
WINDOW 39 0 0 Left 2
SYMATTR InstName V2
SYMATTR Value 10
SYMBOL voltage -896 96 R0
WINDOW 123 0 0 Left 2
WINDOW 39 0 0 Left 2
SYMATTR InstName V1
SYMATTR Value 0
SYMBOL res -560 96 R90
WINDOW 0 0 56 VBottom 2
WINDOW 3 32 56 VTop 2
SYMATTR InstName R1
SYMATTR Value 1k
SYMBOL res -48 288 R90
WINDOW 0 0 56 VBottom 2
WINDOW 3 32 56 VTop 2
SYMATTR InstName R2
SYMATTR Value 1k
SYMBOL voltage -1008 -256 R0
WINDOW 123 0 0 Left 2
WINDOW 39 0 0 Left 2
SYMATTR InstName V4
SYMATTR Value 10
SYMBOL voltage -864 -256 R0
WINDOW 123 0 0 Left 2
WINDOW 39 0 0 Left 2
SYMATTR InstName V5
SYMATTR Value 0
SYMBOL voltage -736 -256 R0
WINDOW 123 0 0 Left 2
WINDOW 39 0 0 Left 2
SYMATTR InstName V6
SYMATTR Value 0
SYMBOL voltage -592 -256 R0
WINDOW 123 0 0 Left 2
WINDOW 39 0 0 Left 2
SYMATTR InstName V7
SYMATTR Value 0
SYMBOL voltage -752 128 R0
WINDOW 123 24 124 Left 2
WINDOW 39 0 0 Left 2
WINDOW 3 24 44 Left 2
SYMATTR Value2 AC 1
SYMATTR Value SINE(0 200m 1k)
SYMATTR InstName Vin
SYMBOL Opamps\\AD8619 -208 144 M180
SYMATTR InstName U2
SYMBOL voltage -1296 -256 R0
WINDOW 123 0 0 Left 2
WINDOW 39 0 0 Left 2
SYMATTR InstName V3
SYMATTR Value -10
SYMBOL res -64 704 R90
WINDOW 0 0 56 VBottom 2
WINDOW 3 32 56 VTop 2
SYMATTR InstName R3
SYMATTR Value 2k
SYMBOL Switches\\ADG5412 -336 768 R0
SYMATTR InstName U1
SYMBOL Switches\\ADG5412 -336 352 R0
SYMATTR InstName U3
TEXT -440 -256 Left 2 ;.ac dec 100 1 1Meg
TEXT -440 -216 Left 2 !;op
TEXT 32 -488 Left 2 !.tran 0 10m 0 100n
TEXT 24 -456 Left 2 !.FOUR 1khz 10 V(OUT)
TEXT 24 -424 Left 2 !.OPTIONS plotwinsize=0
TEXT 32 -392 Left 2 ;To disable compression
TEXT 32 -360 Left 2 !.OPTIONS numdgt=7
TEXT 32 -328 Left 2 ;To switch to double precision math\non dependent variables
TEXT -432 -184 Left 2 !;dc Vin 0 1.8 1m
TEXT -448 -504 Left 2 !.meas AC Rin FIND Rintrare() AT 1
TEXT -448 -472 Left 2 !.func Rintrare() V(in)/I(Vin)
TEXT -448 -432 Left 2 !.FOUR 1khz 10 V(OUT)
TEXT -448 -400 Left 2 !.OPTIONS plotwinsize=0
TEXT -440 -368 Left 2 ;To disable compression
TEXT -440 -336 Left 2 !.OPTIONS numdgt=7
